<?xml version="1.0" encoding="ISO-8859-1"?>
<febio_spec version="3.0">
	<Module type="multiphasicTPM"/>
         <!---<Code>
         <callback name="my_callback"/>
             <test>1.0</test>
          <!---</callback>
        </Code>--->
	<Globals>
		<Constants>
			<T>313.15</T> <!---313.5--->
			<R>8.3144</R> <!---8.3144--->
			<Fc>9.648e4</Fc> <!---1--->
		</Constants>
		<Solutes>
			<solute id="1" name="S_ext">
				<charge_number>0</charge_number>
				<molar_mass>1</molar_mass>
				<density>1</density>
			</solute>
			<solute id="2" name="P_ext">
				<charge_number>0</charge_number>
				<molar_mass>1</molar_mass>
				<density>1</density>
			</solute>
		</Solutes>
	</Globals>
	<Material>
		<material id="1" name="Material1" type="multiphasicTPM">
			<phi0>0.71</phi0>
			<fixed_charge_density>0</fixed_charge_density>
			<solid type="neo-Hookean">
				<density>1</density>
				<E>10000</E>
				<v>0.2</v>
			</solid>
			<permeability type="perm-const-isoTPM">
				<perm>6.45e-11</perm>
			</permeability>
			<osmotic_coefficient type="osm-coef-constTPM">
				<osmcoef>0</osmcoef>
			</osmotic_coefficient>
			<solute sol="1">
				<diffusivity type="diff-const-isoTPM">
					<free_diff>0.0001</free_diff>
					<diff>0.0001</diff>
				</diffusivity>
				<solubility type="solub-constTPM">
					<solub>1</solub>
				</solubility>
			</solute>
			<solute sol="2">
				<diffusivity type="diff-const-isoTPM">
					<free_diff>0.0001</free_diff>
					<diff>0.0001</diff>
				</diffusivity>
				<solubility type="solub-constTPM">
					<solub>1</solub>
				</solubility>
			</solute>
		</material>
	</Material>
	<Mesh>
		<Nodes name="Leberlaeppchen_ideal">
			<node id="1">-3.68058097e-05,0.000978749532,0</node>
			<node id="2">3.68058097e-05,0.000978749532,0</node>
			<node id="3">-0.00082919419,0.000521250468,0</node>
			<node id="4">-0.0008235,0.0005,0</node>
			<node id="5">-0.000866,0.0004575,0</node>
			<node id="6">-0.000866,-0.0004575,0</node>
			<node id="7">-0.0008235,-0.0005,0</node>
			<node id="8">-0.00082919419,-0.000521250468,0</node>
			<node id="9">-3.68058097e-05,-0.000978749532,0</node>
			<node id="10">3.68058097e-05,-0.000978749532,0</node>
			<node id="11">0.00082919419,-0.000521250468,0</node>
			<node id="12">0.000866,-0.0004575,0</node>
			<node id="13">0.000866,0.0004575,0</node>
			<node id="14">0.00082919419,0.000521250468,0</node>
			<node id="15">8.5e-05,0,0</node>
			<node id="16">-3.68058097e-05,0.000978749532,-0.001</node>
			<node id="17">3.68058097e-05,0.000978749532,-0.001</node>
			<node id="18">-0.00082919419,0.000521250468,-0.001</node>
			<node id="19">-0.0008235,0.0005,-0.001</node>
			<node id="20">-0.000866,0.0004575,-0.001</node>
<!-- ... 606 like lines cut -->
		</Nodes>
		<Elements type="penta6" name="Part1">
			<elem id="1">15,305,128,30,555,378</elem>
			<elem id="2">144,260,56,394,510,104</elem>
			<elem id="3">301,320,175,551,570,425</elem>
			<elem id="4">260,350,56,510,600,104</elem>
			<elem id="5">51,366,308,99,616,558</elem>
			<elem id="6">300,321,165,550,571,415</elem>
			<elem id="7">127,305,15,377,555,30</elem>
			<elem id="8">299,320,301,549,570,551</elem>
			<elem id="9">206,241,239,456,491,489</elem>
			<elem id="10">258,309,146,508,559,396</elem>
			<elem id="11">131,353,274,381,603,524</elem>
			<elem id="12">296,321,300,546,571,550</elem>
			<elem id="13">325,328,290,575,578,540</elem>
			<elem id="14">236,259,144,486,509,394</elem>
			<elem id="15">51,308,50,99,558,98</elem>
			<elem id="16">208,284,280,458,534,530</elem>
			<elem id="17">144,374,236,394,624,486</elem>
			<elem id="18">146,309,253,396,559,503</elem>
			<elem id="19">195,304,197,445,554,447</elem>
			<elem id="20">280,307,208,530,557,458</elem>
<!-- ... 543 like lines cut -->
		</Elements>
		<Surface name="FixedEffectiveFluidPressure1">
			<quad4 id="1">78,126,125,77</quad4>
			<quad4 id="2">74,122,121,73</quad4>
			<quad4 id="3">77,125,124,76</quad4>
			<quad4 id="4">75,123,122,74</quad4>
			<quad4 id="5">76,124,123,75</quad4>
			<quad4 id="6">15,30,126,78</quad4>
			<quad4 id="7">73,121,30,15</quad4>
		</Surface>
		<Surface name="FixedDisplacement1">
			<quad4 id="1">78,126,125,77</quad4>
			<quad4 id="2">74,122,121,73</quad4>
			<quad4 id="3">77,125,124,76</quad4>
			<quad4 id="4">75,123,122,74</quad4>
			<quad4 id="5">76,124,123,75</quad4>
			<quad4 id="6">15,30,126,78</quad4>
			<quad4 id="7">73,121,30,15</quad4>
		</Surface>
		<Surface name="PrescribedEffectiveFluidPressure1">
			<quad4 id="1">52,100,25,10</quad4>
			<quad4 id="2">9,24,100,52</quad4>
			<quad4 id="3">4,19,86,38</quad4>
			<quad4 id="4">3,18,19,4</quad4>
			<quad4 id="5">38,86,20,5</quad4>
			<quad4 id="6">45,93,22,7</quad4>
			<quad4 id="7">6,21,93,45</quad4>
			<quad4 id="8">7,22,23,8</quad4>
			<quad4 id="9">2,17,79,31</quad4>
			<quad4 id="10">31,79,16,1</quad4>
			<quad4 id="11">13,28,114,66</quad4>
			<quad4 id="12">66,114,29,14</quad4>
			<quad4 id="13">11,26,107,59</quad4>
			<quad4 id="14">59,107,27,12</quad4>
		</Surface>
		<Surface name="SoluteMolarFlowRate1">
			<quad4 id="1">52,100,25,10</quad4>
			<quad4 id="2">9,24,100,52</quad4>
			<quad4 id="3">4,19,86,38</quad4>
			<quad4 id="4">3,18,19,4</quad4>
			<quad4 id="5">38,86,20,5</quad4>
			<quad4 id="6">45,93,22,7</quad4>
			<quad4 id="7">6,21,93,45</quad4>
			<quad4 id="8">7,22,23,8</quad4>
			<quad4 id="9">2,17,79,31</quad4>
			<quad4 id="10">31,79,16,1</quad4>
			<quad4 id="11">13,28,114,66</quad4>
			<quad4 id="12">66,114,29,14</quad4>
			<quad4 id="13">11,26,107,59</quad4>
			<quad4 id="14">59,107,27,12</quad4>
		</Surface>
		<Surface name="SoluteMolarFlowRate2">
			<quad4 id="1">52,100,25,10</quad4>
			<quad4 id="2">9,24,100,52</quad4>
			<quad4 id="3">4,19,86,38</quad4>
			<quad4 id="4">3,18,19,4</quad4>
			<quad4 id="5">38,86,20,5</quad4>
			<quad4 id="6">45,93,22,7</quad4>
			<quad4 id="7">6,21,93,45</quad4>
			<quad4 id="8">7,22,23,8</quad4>
			<quad4 id="9">2,17,79,31</quad4>
			<quad4 id="10">31,79,16,1</quad4>
			<quad4 id="11">13,28,114,66</quad4>
			<quad4 id="12">66,114,29,14</quad4>
			<quad4 id="13">11,26,107,59</quad4>
			<quad4 id="14">59,107,27,12</quad4>
		</Surface>
		<Surface name="SoluteNaturalFlux1">
			<quad4 id="1">78,126,125,77</quad4>
			<quad4 id="2">74,122,121,73</quad4>
			<quad4 id="3">77,125,124,76</quad4>
			<quad4 id="4">75,123,122,74</quad4>
			<quad4 id="5">76,124,123,75</quad4>
			<quad4 id="6">15,30,126,78</quad4>
			<quad4 id="7">73,121,30,15</quad4>
		</Surface>
		<Surface name="SoluteNaturalFlux2">
			<quad4 id="1">78,126,125,77</quad4>
			<quad4 id="2">74,122,121,73</quad4>
			<quad4 id="3">77,125,124,76</quad4>
			<quad4 id="4">75,123,122,74</quad4>
			<quad4 id="5">76,124,123,75</quad4>
			<quad4 id="6">15,30,126,78</quad4>
			<quad4 id="7">73,121,30,15</quad4>
		</Surface>
                 <ElementSet name="outflow">
                        <e id="355"/>
                        <e id="353"/>
                        <e id="351"/>
                        <e id="356"/>
                        <e id="357"/>
                        <e id="352"/>
                        <e id="354"/>
                </ElementSet>
                <ElementSet name="inflow">
                        <e id="22"/>
                        <e id="417"/>
                        <e id="418"/>
                        <e id="462"/>
                        <e id="463"/>
                        <e id="529"/>
                        <e id="530"/>
                        <e id="532"/>
                        <e id="533"/>
                        <e id="534"/>
                        <e id="554"/>
                        <e id="557"/>
                        <e id="560"/>
                        <e id="561"/>
                </ElementSet>
	</Mesh>
	<MeshDomains>
		<SolidDomain name="Part1" mat="Material1"/>
	</MeshDomains>
	<Step>
		<step id="1" name="Step1">
			<Control>
				<analysis>TRANSIENT</analysis>
				<time_steps>28800</time_steps>
				<step_size>1.0</step_size>
                                <plot_stride>10.0</plot_stride>
				<solver>
					<max_refs>15</max_refs>
					<max_ups>10</max_ups>
					<diverge_reform>1</diverge_reform>
					<reform_each_time_step>1</reform_each_time_step>
					<dtol>0.001</dtol>
					<etol>0.01</etol>
					<rtol>0</rtol>
					<ptol>0.01</ptol>
					<ctol>0.01</ctol>
					<lstol>0.9</lstol>
					<min_residual>1e-20</min_residual>
					<qnmethod>BFGS</qnmethod>
				</solver>
				<!---<time_stepper>
					<dtmin>0.01</dtmin>
					<dtmax>0.1</dtmax>
					<max_retries>5</max_retries>
					<opt_iter>10</opt_iter>
					<aggressiveness>1</aggressiveness>
				</time_stepper>--->
			</Control>
			<Boundary>
				<!---<bc name="FixedEffectiveFluidPressure1" type="fix" node_set="@surface:FixedEffectiveFluidPressure1">
					<dofs>p</dofs>
				</bc>--->
                                 <bc name="PrescribedEffectiveFluidPressure1" type="prescribe" node_set="@surface:FixedEffectiveFluidPressure1">
                                        <dof>p</dof>
                                         <scale lc="1">133</scale>
                                        <relative>0</relative>
                                </bc>
				<bc name="FixedDisplacement1" type="fix" node_set="@surface:FixedDisplacement1">
					<dofs>x,y,z</dofs>
				</bc>
				<bc name="PrescribedEffectiveFluidPressure1" type="prescribe" node_set="@surface:PrescribedEffectiveFluidPressure1">
					<dof>p</dof>
					<scale lc="1">433</scale>
					<relative>0</relative>
				</bc>
			</Boundary>
			<Loads>
				<surface_load name="SoluteMolarFlowRate2" type="soluteflux" surface="SoluteMolarFlowRate2">
					<flux lc="2">1</flux>
					<linear>0</linear>
					<solute_id>1</solute_id>
				</surface_load>
                                 <surface_load name="SoluteMolarFlowRate1" type="soluteflux" surface="SoluteMolarFlowRate1">
                                 <flux lc="3">-0.00000506500741</flux>
                                 <linear>0</linear>
                                 <solute_id>2</solute_id>
                                 </surface_load>
				<surface_load name="SoluteNaturalFlux1" type="solute natural flux" surface="SoluteNaturalFlux1">
					<solute_id>1</solute_id>
					<shell_bottom>0</shell_bottom>
				</surface_load>
				<surface_load name="SoluteNaturalFlux2" type="solute natural flux" surface="SoluteNaturalFlux2">
					<solute_id>2</solute_id>
					<shell_bottom>0</shell_bottom>
				</surface_load>
			</Loads>
		</step>
	</Step>
	<LoadData>
		<load_controller id="1" type="loadcurve">
			<interpolate>SMOOTH</interpolate>
			<points>
				<point>0,1</point>
				<point>1,1</point>
			</points>
		</load_controller>
		<load_controller id="2" type="loadcurve">
			<interpolate>SMOOTH</interpolate>
			<points>
				<point>0,1</point>
				<!---<point>1,1</point>--->
                                <!---bodymodel: 0,0: withoutbody: 0,1 --->
			</points>
		</load_controller>
		<load_controller id="3" type="loadcurve">
			<interpolate>SMOOTH</interpolate>
			<points>
				<point>0,0</point>
				<!---<point>1,1</point>--->
			</points>
		</load_controller>
	</LoadData>
	<Output>
		<plotfile type="febio">
			<var type="displacement"/>
			<var type="stress"/>
			<var type="effective fluid pressure TPM"/>
			<var type="fluid flux TPM"/>
			<var type="solid stress TPM"/>
			<var type="effective solute concentration TPM"/>
			<var type="solute concentration TPM"/>
			<var type="solute flux TPM"/>
                        <var type="rr_necrosis"/>
                        <var type="rr_protein"/>
                        <var type="rr_(S_ext)"/>
                        <var type="rr_(P_ext)"/>
                        <var type="rr_(S)"/>
                        <var type="rr_(P)"/>
                        <var type="rr_(T)"/>
                        <var type="rr_tsim"/>
                        <var type="rr_Vext"/>
                        <var type="rr_Vli"/>
                        <var type="rr_S_ext'"/>
                        <var type="rr_P_ext'"/>
                        <var type="rr_S'"/>
                        <var type="rr_P'"/>
                        <var type="rr_T'"/>
                        <var type="rr_uec(SIM, S_ext)"/>
                        <var type="rr_uec(PEX, P_ext)"/>
                        <var type="cell_type"/>
		</plotfile>
	</Output>
</febio_spec>